PROVA - OpenFAST and costs complete in 141.2 s 
PROVA - OpenFAST and costs complete in 52.5 s 
